CM Two-antenna array, baseline = 10000 mm = 10.0 m
CM For mutual coupling analysis at 610 MHz
CM Antenna geometry IDENTICAL to yagi_two_ant_d50cm.nec (chi thay baseline)
CM Antenna 1: tags 1-14 at X offset = 0
CM Antenna 2: tags 15-28 at X offset = +10.0 m (20.3 lambda)
CE
GW	1	21	-0.150	0.020	0.040	0.150	0.020	0.040	0.0035
GW	2	21	-0.150	0	0.010	0.150	0	0.010	0.0035
GW	3	21	-0.150	0	-0.010	0.150	0	-0.010	0.0035
GW	4	21	-0.150	0.020	-0.040	0.150	0.020	-0.040	0.0035
GW	5	21	-0.105	0.098	0	0.105	0.098	0	0.0020
GW	6	21	-0.105	0.142	0	0.105	0.142	0	0.0020
GW	7	3	0.105	0.098	0	0.105	0.142	0	0.0020
GW	8	3	-0.105	0.098	0	-0.105	0.142	0	0.0020
GW	9	21	-0.105	0.180	0	0.105	0.180	0	0.0035
GW	10	21	-0.105	0.220	0	0.105	0.220	0	0.0035
GW	11	21	-0.105	0.270	0	0.105	0.270	0	0.0035
GW	12	21	-0.105	0.320	0	0.105	0.320	0	0.0035
GW	13	21	-0.105	0.386	0	0.105	0.386	0	0.0035
GW	14	21	-0.105	0.455	0	0.105	0.455	0	0.0035
GW	15	21	9.85	0.020	0.040	10.15	0.020	0.040	0.0035
GW	16	21	9.85	0	0.010	10.15	0	0.010	0.0035
GW	17	21	9.85	0	-0.010	10.15	0	-0.010	0.0035
GW	18	21	9.85	0.020	-0.040	10.15	0.020	-0.040	0.0035
GW	19	21	9.895	0.098	0	10.105	0.098	0	0.0020
GW	20	21	9.895	0.142	0	10.105	0.142	0	0.0020
GW	21	3	10.105	0.098	0	10.105	0.142	0	0.0020
GW	22	3	9.895	0.098	0	9.895	0.142	0	0.0020
GW	23	21	9.895	0.180	0	10.105	0.180	0	0.0035
GW	24	21	9.895	0.220	0	10.105	0.220	0	0.0035
GW	25	21	9.895	0.270	0	10.105	0.270	0	0.0035
GW	26	21	9.895	0.320	0	10.105	0.320	0	0.0035
GW	27	21	9.895	0.386	0	10.105	0.386	0	0.0035
GW	28	21	9.895	0.455	0	10.105	0.455	0	0.0035
GE	0
GN	-1
EK
EX	0	5	11	0	1.0	0	0	0
EX	0	19	11	0	0	0	0	0
FR	0	0	0	0	610	0
RP	0	181	73	1000	0.0	0.0	1.0	5.0		
EN
